<?xml version="1.0" encoding="UTF-8"?>

<!-- generated on 2024-03-27 16:27:36 by Eclipse SUMO netedit Version 1.19.0
<configuration xmlns:xsi="http://www.w3.org/2001/XMLSchema-instance" xsi:noNamespaceSchemaLocation="http://sumo.dlr.de/xsd/neteditConfiguration.xsd">

    <input>
        <sumo-net-file value="C:\Amornyos\PhD\Traffic_Flow_SUMO\Networks\test_1.net.xml"/>
    </input>

    <output>
        <output-file value="C:\Amornyos\PhD\Traffic_Flow_SUMO\Networks\test_1.net.xml"/>
    </output>

    <processing>
        <offset.disable-normalization value="true"/>
    </processing>

    <junctions>
        <no-turnarounds value="true"/>
    </junctions>

    <netedit>
        <new-network value="false"/>
    </netedit>

</configuration>
-->

<net version="1.16" junctionCornerDetail="5" limitTurnSpeed="5.50" xmlns:xsi="http://www.w3.org/2001/XMLSchema-instance" xsi:noNamespaceSchemaLocation="http://sumo.dlr.de/xsd/net_file.xsd">

    <location netOffset="0.00,0.00" convBoundary="0.00,100.00,100.00,100.00" origBoundary="10000000000.00,10000000000.00,-10000000000.00,-10000000000.00" projParameter="!"/>
    
    <junction id="bottom" type="dead_end" x="0.00" y="-39.78874"/>
    <junction id="top" type="dead_end" x="0" y="39.78874"/>
    
    <edge id="right" from="bottom" to="top" priority="-1" shape="0.00000,-39.78874 1.58186,-39.75728 3.16122,-39.66296 4.73558,-39.50592 6.30246,-39.28642 7.85937,-39.00479 9.40385,-38.66149 10.93346,-38.25706 12.44578,-37.79214 13.93843,-37.26746 15.40903,-36.68386 16.85527,-36.04224 18.27486,-35.34364 19.66555,-34.58915 21.02515,-33.77997 22.35150,-32.91738 23.64251,-32.00274 24.89613,-31.03749 26.11039,-30.02317 27.28337,-28.96138 28.41320,-27.85379 29.49811,-26.70216 30.53637,-25.50831 31.52635,-24.27412 32.46648,-23.00155 33.35527,-21.69261 34.19132,-20.34937 34.97331,-18.97396 35.70000,-17.56854 36.37024,-16.13534 36.98297,-14.67663 37.53722,-13.19471 38.03212,-11.69193 38.46688,-10.17066 38.84082,-8.63331 39.15334,-7.08231 39.40396,-5.52011 39.59226,-3.94918 39.71797,-2.37201 39.78087,-0.79109 39.78087,0.79109 39.71797,2.37201 39.59226,3.94918 39.40396,5.52011 39.15334,7.08231 38.84082,8.63331 38.46688,10.17066 38.03212,11.69193 37.53722,13.19471 36.98297,14.67663 36.37024,16.13534 35.70000,17.56854 34.97331,18.97396 34.19132,20.34937 33.35527,21.69261 32.46648,23.00155 31.52635,24.27412 30.53637,25.50831 29.49811,26.70216 28.41320,27.85379 27.28337,28.96138 26.11039,30.02317 24.89613,31.03749 23.64251,32.00274 22.35150,32.91738 21.02515,33.77997 19.66555,34.58915 18.27486,35.34364 16.85527,36.04224 15.40903,36.68386 13.93843,37.26746 12.44578,37.79214 10.93346,38.25706 9.40385,38.66149 7.85937,39.00479 6.30246,39.28642 4.73558,39.50592 3.16122,39.66296 1.58186,39.75728 0.00000,39.78874" numLanes="1">
        <lane id="right_0" index="0" speed="13.89" length="125.00" shape="0.00000,-39.78874 1.58186,-39.75728 3.16122,-39.66296 4.73558,-39.50592 6.30246,-39.28642 7.85937,-39.00479 9.40385,-38.66149 10.93346,-38.25706 12.44578,-37.79214 13.93843,-37.26746 15.40903,-36.68386 16.85527,-36.04224 18.27486,-35.34364 19.66555,-34.58915 21.02515,-33.77997 22.35150,-32.91738 23.64251,-32.00274 24.89613,-31.03749 26.11039,-30.02317 27.28337,-28.96138 28.41320,-27.85379 29.49811,-26.70216 30.53637,-25.50831 31.52635,-24.27412 32.46648,-23.00155 33.35527,-21.69261 34.19132,-20.34937 34.97331,-18.97396 35.70000,-17.56854 36.37024,-16.13534 36.98297,-14.67663 37.53722,-13.19471 38.03212,-11.69193 38.46688,-10.17066 38.84082,-8.63331 39.15334,-7.08231 39.40396,-5.52011 39.59226,-3.94918 39.71797,-2.37201 39.78087,-0.79109 39.78087,0.79109 39.71797,2.37201 39.59226,3.94918 39.40396,5.52011 39.15334,7.08231 38.84082,8.63331 38.46688,10.17066 38.03212,11.69193 37.53722,13.19471 36.98297,14.67663 36.37024,16.13534 35.70000,17.56854 34.97331,18.97396 34.19132,20.34937 33.35527,21.69261 32.46648,23.00155 31.52635,24.27412 30.53637,25.50831 29.49811,26.70216 28.41320,27.85379 27.28337,28.96138 26.11039,30.02317 24.89613,31.03749 23.64251,32.00274 22.35150,32.91738 21.02515,33.77997 19.66555,34.58915 18.27486,35.34364 16.85527,36.04224 15.40903,36.68386 13.93843,37.26746 12.44578,37.79214 10.93346,38.25706 9.40385,38.66149 7.85937,39.00479 6.30246,39.28642 4.73558,39.50592 3.16122,39.66296 1.58186,39.75728 0.00000,39.78874"/>
    </edge>
    
    <edge id="left" from="top" to="bottom" priority="-1" shape="0.00000,39.78874 -1.58186,39.75728 -3.16122,39.66296 -4.73558,39.50592 -6.30246,39.28642 -7.85937,39.00479 -9.40385,38.66149 -10.93346,38.25706 -12.44578,37.79214 -13.93843,37.26746 -15.40903,36.68386 -16.85527,36.04224 -18.27486,35.34364 -19.66555,34.58915 -21.02515,33.77997 -22.35150,32.91738 -23.64251,32.00274 -24.89613,31.03749 -26.11039,30.02317 -27.28337,28.96138 -28.41320,27.85379 -29.49811,26.70216 -30.53637,25.50831 -31.52635,24.27412 -32.46648,23.00155 -33.35527,21.69261 -34.19132,20.34937 -34.97331,18.97396 -35.70000,17.56854 -36.37024,16.13534 -36.98297,14.67663 -37.53722,13.19471 -38.03212,11.69193 -38.46688,10.17066 -38.84082,8.63331 -39.15334,7.08231 -39.40396,5.52011 -39.59226,3.94918 -39.71797,2.37201 -39.78087,0.79109 -39.78087,-0.79109 -39.71797,-2.37201 -39.59226,-3.94918 -39.40396,-5.52011 -39.15334,-7.08231 -38.84082,-8.63331 -38.46688,-10.17066 -38.03212,-11.69193 -37.53722,-13.19471 -36.98297,-14.67663 -36.37024,-16.13534 -35.70000,-17.56854 -34.97331,-18.97396 -34.19132,-20.34937 -33.35527,-21.69261 -32.46648,-23.00155 -31.52635,-24.27412 -30.53637,-25.50831 -29.49811,-26.70216 -28.41320,-27.85379 -27.28337,-28.96138 -26.11039,-30.02317 -24.89613,-31.03749 -23.64251,-32.00274 -22.35150,-32.91738 -21.02515,-33.77997 -19.66555,-34.58915 -18.27486,-35.34364 -16.85527,-36.04224 -15.40903,-36.68386 -13.93843,-37.26746 -12.44578,-37.79214 -10.93346,-38.25706 -9.40385,-38.66149 -7.85937,-39.00479 -6.30246,-39.28642 -4.73558,-39.50592 -3.16122,-39.66296 -1.58186,-39.75728 -0.00000,-39.78874" numLanes="1">
        <lane id="left_0" index="0" length="125.0" speed="13.89" shape="0.00000,39.78874 -1.58186,39.75728 -3.16122,39.66296 -4.73558,39.50592 -6.30246,39.28642 -7.85937,39.00479 -9.40385,38.66149 -10.93346,38.25706 -12.44578,37.79214 -13.93843,37.26746 -15.40903,36.68386 -16.85527,36.04224 -18.27486,35.34364 -19.66555,34.58915 -21.02515,33.77997 -22.35150,32.91738 -23.64251,32.00274 -24.89613,31.03749 -26.11039,30.02317 -27.28337,28.96138 -28.41320,27.85379 -29.49811,26.70216 -30.53637,25.50831 -31.52635,24.27412 -32.46648,23.00155 -33.35527,21.69261 -34.19132,20.34937 -34.97331,18.97396 -35.70000,17.56854 -36.37024,16.13534 -36.98297,14.67663 -37.53722,13.19471 -38.03212,11.69193 -38.46688,10.17066 -38.84082,8.63331 -39.15334,7.08231 -39.40396,5.52011 -39.59226,3.94918 -39.71797,2.37201 -39.78087,0.79109 -39.78087,-0.79109 -39.71797,-2.37201 -39.59226,-3.94918 -39.40396,-5.52011 -39.15334,-7.08231 -38.84082,-8.63331 -38.46688,-10.17066 -38.03212,-11.69193 -37.53722,-13.19471 -36.98297,-14.67663 -36.37024,-16.13534 -35.70000,-17.56854 -34.97331,-18.97396 -34.19132,-20.34937 -33.35527,-21.69261 -32.46648,-23.00155 -31.52635,-24.27412 -30.53637,-25.50831 -29.49811,-26.70216 -28.41320,-27.85379 -27.28337,-28.96138 -26.11039,-30.02317 -24.89613,-31.03749 -23.64251,-32.00274 -22.35150,-32.91738 -21.02515,-33.77997 -19.66555,-34.58915 -18.27486,-35.34364 -16.85527,-36.04224 -15.40903,-36.68386 -13.93843,-37.26746 -12.44578,-37.79214 -10.93346,-38.25706 -9.40385,-38.66149 -7.85937,-39.00479 -6.30246,-39.28642 -4.73558,-39.50592 -3.16122,-39.66296 -1.58186,-39.75728 -0.00000,-39.78874"/>
    </edge>

    <connections>
        <connection from="left" to="right" fromLane="0" toLane="0" dir="s" state="M"/>
        <connection from="right" to="left" fromLane="0" toLane="0" dir="s" state="M"/>
    </connections>

</net>
